
Circuit: *

Doing analysis at TEMP = 27.000000 and TNOM = 27.000000


No. of Data Rows : 1
**************************
Operating point
**************************
op_TAB
@gb[i] = -2.72859e-04
@id[current] = 1.035361e-03
@r1[i] = 2.604926e-04
@r2[i] = -2.72859e-04
@r3[i] = -1.23662e-05
@r4[i] = 1.248639e-03
@r5[i] = -1.30822e-03
@r6[i] = 9.881466e-04
@r7[i] = 9.881466e-04
v(1) = 1.216927e+01
v(2) = 7.480974e+00
v(3) = 8.035705e+00
v(4) = 8.297960e+00
v(5) = 3.074760e+00
v(6) = 1.005680e+00
v(7) = 8.073223e+00
v(8) = 1.005680e+00
hc#branch = 4.721473e-05
va#branch = -2.60493e-04
ve#branch = 9.881466e-04
op_END
ngspice-31 done
