
Circuit: *

Doing analysis at TEMP = 27.000000 and TNOM = 27.000000


No. of Data Rows : 1
**************************
Operating point
**************************
op1_TAB
@ca[i] = 0.000000e+00
@gb[i] = -2.68449e-04
@r1[i] = 2.563813e-04
@r2[i] = -2.68449e-04
@r3[i] = -1.20678e-05
@r4[i] = 1.186012e-03
@r5[i] = -2.68449e-04
@r6[i] = 9.296302e-04
@r7[i] = 9.296302e-04
v(1) = 5.125559e+00
v(2) = 4.861047e+00
v(3) = 4.313554e+00
v(5) = 4.898549e+00
v(6) = 5.710299e+00
v(7) = -1.91255e+00
v(8) = -2.87912e+00
v(9) = -1.91255e+00
hc#branch = -9.29630e-04
ve#branch = 9.296302e-04
vs#branch = -2.56381e-04
op1_END
Doing analysis at TEMP = 27.000000 and TNOM = 27.000000


No. of Data Rows : 1

No. of Data Rows : 1
	Node                                  Voltage
	----                                  -------
	----	-------
	V(8)                             -2.87912e+00
	V(7)                             -1.91255e+00
	V(9)                             -1.91255e+00
	V(6)                             5.710299e+00
	V(5)                             4.898549e+00
	V(3)                             4.313554e+00
	V(2)                             4.861047e+00
	V(1)                             5.125559e+00

	Source	Current
	------	-------

	@gb[i]                           -2.68449e-04
	@ca[i]                           0.000000e+00
	@r7[i]                           9.296302e-04
	@r6[i]                           9.296302e-04
	@r5[i]                           -2.68449e-04
	@r4[i]                           1.186012e-03
	@r3[i]                           -1.20678e-05
	@r2[i]                           -2.68449e-04
	@r1[i]                           2.563813e-04
	vs#branch                        -2.56381e-04
	ve#branch                        9.296302e-04
	hc#branch                        -9.29630e-04

 Capacitor models (Fixed capacitor)
      model                     C

        cap                     0
         cj                     0
       cjsw                     0
       defw                 1e-05
       defl                     0
     narrow                     0
      short                     0
        del                     0
        tc1                     0
        tc2                     0
         di                     0
      thick                     0
     bv_max                 1e+99

 Resistor models (Simple linear resistor)
      model                     R

        rsh                     0
     narrow                     0
      short                     0
        tc1                     0
        tc2                     0
        tce                     0
       defw                 1e-05
          l                 1e-05
         kf                     0
         af                     0
          r                     0
     bv_max                 1e+99
         lf                     1
         wf                     1
         ef                     1

 Capacitor: Fixed capacitor
     device                    ca
      model                     C
capacitance            1.0226e-06
      dtemp                     0
     bv_max                 1e+99
          i                     0
          p                     0

 CCVS: Linear current controlled current source
     device                    hc
          i           -0.00092963
          v               7.77766
          p           -0.00723035

 Resistor: Simple linear resistor
     device                    r7                    r6                    r5
      model                     R                     R                     R
 resistance               1039.73               2057.32               3023.85
         ac               1039.73               2057.32               3023.85
      dtemp                     0                     0                     0
     bv_max                 1e+99                 1e+99                 1e+99
      noisy                     1                     1                     1
          i            0.00092963            0.00092963          -0.000268449
          p           0.000898549            0.00177796           0.000217913

 Resistor: Simple linear resistor
     device                    r4                    r3                    r2
      model                     R                     R                     R
 resistance               4130.27               3107.57               2039.47
         ac               4130.27               3107.57               2039.47
      dtemp                     0                     0                     0
     bv_max                 1e+99                 1e+99                 1e+99
      noisy                     1                     1                     1
          i            0.00118601          -1.20678e-05          -0.000268449
          p            0.00580974           4.52563e-07           0.000146974

 Resistor: Simple linear resistor
     device                    r1
      model                     R
 resistance               1031.71
         ac               1031.71
      dtemp                     0
     bv_max                 1e+99
      noisy                     1
          i           0.000256381
          p           6.78158e-05

 VCCS: Voltage controlled current source
     device                    gb
          m                     0
          i          -0.000268449
          v               1.39674
          p          -0.000374955

 Vsource: Independent voltage source
     device                    ve                    vs
         dc                     0               5.12556
      acmag                     0                     0
      pulse         -         -
        sin         -         -
        exp         -         -
        pwl         -         -
       sffm         -         -
         am         -         -
    trnoise         -         -
   trrandom         -         -
          i            0.00092963          -0.000256381
          p                    -0             0.0013141


Total analysis time (seconds) = 0.002

Total elapsed time (seconds) = 0.024 

Total DRAM available = 3935.898 MB.
DRAM currently available = 1513.883 MB.
Total ngspice program size =   22.113 MB.
Resident set size =    9.684 MB.
Shared ngspice pages =    7.781 MB.
Text (code) pages =    5.070 MB.
Stack = 0 bytes.
Library pages =    2.371 MB.

