
Circuit: *

Doing analysis at TEMP = 27.000000 and TNOM = 27.000000


No. of Data Rows : 1
**************************
Operating point
**************************
op1_TAB
@ca[i] = 0.000000e+00
@gb[i] = -2.72859e-04
@r1[i] = 2.604926e-04
@r2[i] = -2.72859e-04
@r3[i] = -1.23662e-05
@r4[i] = 1.248639e-03
@r5[i] = -2.72859e-04
@r6[i] = -9.88147e-04
@r7[i] = 9.881466e-04
v(1) = 5.223200e+00
v(2) = 4.960945e+00
v(3) = 4.406214e+00
v(5) = 4.998463e+00
v(6) = 5.852787e+00
v(7) = -2.06908e+00
v(8) = -3.07476e+00
v(9) = -2.06908e+00
hc#branch = -9.88147e-04
ve#branch = 9.881466e-04
vs#branch = -2.60493e-04
op1_END
ngspice-31 done
