
Circuit: *ngspice simulation script lab1

Doing analysis at TEMP = 27.000000 and TNOM = 27.000000


No. of Data Rows : 1
**************************
Frequency response analysis
**************************
Doing analysis at TEMP = 27.000000 and TNOM = 27.000000


No. of Data Rows : 701

The file "teste_5_db.ps" may be printed on a postscript printer.
teste_5_db_FIG

The file "teste_5_p.ps" may be printed on a postscript printer.
teste_5_p_FIG
ngspice-31 done
