
Circuit: *

Doing analysis at TEMP = 27.000000 and TNOM = 27.000000


No. of Data Rows : 1
**************************
Operating point
**************************
op2_TAB
@gb[i] = -1.07836e-18
@r1[i] = 1.029487e-18
@r2[i] = -1.07836e-18
@r3[i] = -4.88721e-20
@r4[i] = -2.21871e-19
@r5[i] = -1.89416e-03
@r6[i] = -2.16840e-19
@r7[i] = -4.26567e-19
v(1) = 0.000000e+00
v(2) = -1.03645e-15
v(3) = -3.22879e-15
v(5) = -8.88178e-16
v(6) = 5.930624e+00
v(7) = 4.540420e-16
v(8) = 8.881784e-16
v(9) = 4.540420e-16
hc#branch = 1.894157e-03
ve#branch = -2.16840e-19
vs#branch = -1.02949e-18
vx#branch = -1.89416e-03
op2_END
ngspice-31 done
