
Circuit: *ngspice simulation script lab1

Doing analysis at TEMP = 27.000000 and TNOM = 27.000000


No. of Data Rows : 1
**************************
Transient analysis
**************************
Doing analysis at TEMP = 27.000000 and TNOM = 27.000000


Initial Transient Solution
--------------------------

Node                                   Voltage
----                                   -------
1                                            0
2                                      5.83291
3                                      18.1709
5                                      4.99846
6                                      5.85279
9                                     -2.06908
7                                     -2.06908
8                                     -3.07476
hc#branch                         -0.000701904
ve#branch                          0.000988147
vs#branch                           0.00579372


No. of Data Rows : 2008

The file "teste_3.ps" may be printed on a postscript printer.
teste_3_FIG
ngspice-31 done
