
Circuit: *

Doing analysis at TEMP = 27.000000 and TNOM = 27.000000


No. of Data Rows : 1
**************************
Operating point
**************************
op2_TAB
@gb[i] = 4.201237e-18
@r1[i] = -4.01237e-18
@r2[i] = 4.201237e-18
@r3[i] = 1.888621e-19
@r4[i] = 8.601648e-19
@r5[i] = -2.84056e-03
@r6[i] = 8.673617e-19
@r7[i] = 1.700699e-18
v(1) = 0.000000e+00
v(2) = 4.139615e-15
v(3) = 1.270791e-14
v(5) = 3.552714e-15
v(6) = 8.589413e+00
v(7) = -1.78444e-15
v(8) = -3.55271e-15
v(9) = -1.78444e-15
hc#branch = 2.840556e-03
ve#branch = 8.673617e-19
vs#branch = 4.012374e-18
vx#branch = -2.84056e-03
op2_END
Doing analysis at TEMP = 27.000000 and TNOM = 27.000000


No. of Data Rows : 1
	Node                                  Voltage
	----                                  -------
	----	-------
	V(8)                             -3.55271e-15
	V(7)                             -1.78444e-15
	V(9)                             -1.78444e-15
	V(6)                             8.589413e+00
	V(5)                             3.552714e-15
	V(3)                             1.270791e-14
	V(2)                             4.139615e-15
	V(1)                             0.000000e+00

	Source	Current
	------	-------

	@gb[i]                           4.201237e-18
	@r7[i]                           1.700699e-18
	@r6[i]                           8.673617e-19
	@r5[i]                           -2.84056e-03
	@r4[i]                           8.601648e-19
	@r3[i]                           1.888621e-19
	@r2[i]                           4.201237e-18
	@r1[i]                           -4.01237e-18
	vs#branch                        4.012374e-18
	vx#branch                        -2.84056e-03
	ve#branch                        8.673617e-19
	hc#branch                        2.840556e-03

 Resistor models (Simple linear resistor)
      model                     R

        rsh                     0
     narrow                     0
      short                     0
        tc1                     0
        tc2                     0
        tce                     0
       defw                 1e-05
          l                 1e-05
         kf                     0
         af                     0
          r                     0
     bv_max                 1e+99
         lf                     1
         wf                     1
         ef                     1

 CCVS: Linear current controlled current source
     device                    hc
          i            0.00284056
          v           7.10543e-15
          p           2.01834e-17

 Resistor: Simple linear resistor
     device                    r7                    r6                    r5
      model                     R                     R                     R
 resistance               1039.73               2057.32               3023.85
         ac               1039.73               2057.32               3023.85
      dtemp                     0                     0                     0
     bv_max                 1e+99                 1e+99                 1e+99
      noisy                     1                     1                     1
          i            1.7007e-18           8.67362e-19           -0.00284056
          p            3.0073e-33           1.54776e-33             0.0243987

 Resistor: Simple linear resistor
     device                    r4                    r3                    r2
      model                     R                     R                     R
 resistance               4130.27               3107.57               2039.47
         ac               4130.27               3107.57               2039.47
      dtemp                     0                     0                     0
     bv_max                 1e+99                 1e+99                 1e+99
      noisy                     1                     1                     1
          i           8.60165e-19           1.88862e-19           4.20124e-18
          p           3.05592e-33           1.10843e-34           3.59974e-32

 Resistor: Simple linear resistor
     device                    r1
      model                     R
 resistance               1031.71
         ac               1031.71
      dtemp                     0
     bv_max                 1e+99
      noisy                     1
          i          -4.01237e-18
          p           1.66097e-32

 VCCS: Voltage controlled current source
     device                    gb
          m                     0
          i           4.20124e-18
          v               8.58941
          p           3.60862e-17

 Vsource: Independent voltage source
     device                    ve                    vx                    vs
         dc                     0               8.58941                     0
      acmag                     0                     0                     0
      pulse         -         -         -
        sin         -         -         -
        exp         -         -         -
        pwl         -         -         -
       sffm         -         -         -
         am         -         -         -
    trnoise         -         -         -
   trrandom         -         -         -
          i           8.67362e-19           -0.00284056           4.01237e-18
          p                    -0             0.0243987                    -0


Total analysis time (seconds) = 0.004

Total elapsed time (seconds) = 0.019 

Total DRAM available = 3935.898 MB.
DRAM currently available = 1515.117 MB.
Total ngspice program size =   21.855 MB.
Resident set size =    9.758 MB.
Shared ngspice pages =    7.859 MB.
Text (code) pages =    5.070 MB.
Stack = 0 bytes.
Library pages =    2.113 MB.

