
Circuit: .options savecurrents

Doing analysis at TEMP = 27.000000 and TNOM = 27.000000

Warning: vl: no DC value, transient time 0 value used

No. of Data Rows : 71
opZO_TAB
Zo = 25.852 + 1.292 j
Zo(int) = 25.8843
opZO_END
ngspice-31 done
